
---------- Begin Simulation Statistics ----------
final_tick                                53089128000                       # Number of ticks from beginning of simulation (restored from checkpoints and never reset)
host_inst_rate                                  60757                       # Simulator instruction rate (inst/s)
host_mem_usage                                 722416                       # Number of bytes of host memory used
host_op_rate                                    80561                       # Simulator op (including micro ops) rate (op/s)
host_seconds                                  1645.91                       # Real time elapsed on the host
host_tick_rate                               32255092                       # Simulator tick rate (ticks/s)
sim_freq                                 1000000000000                       # Frequency of simulated ticks
sim_insts                                   100000000                       # Number of instructions simulated
sim_ops                                     132596736                       # Number of ops (including micro ops) simulated
sim_seconds                                  0.053089                       # Number of seconds simulated
sim_ticks                                 53089128000                       # Number of ticks simulated
system.cpu.branchPred.BTBCorrect                    0                       # Number of correct BTB predictions (this stat may not work properly.
system.cpu.branchPred.BTBHitPct              0.000000                       # BTB Hit Percentage
system.cpu.branchPred.BTBHits                       0                       # Number of BTB hits
system.cpu.branchPred.BTBLookups              7295355                       # Number of BTB lookups
system.cpu.branchPred.RASInCorrect                  4                       # Number of incorrect RAS predictions.
system.cpu.branchPred.condIncorrect            783036                       # Number of conditional branches incorrect
system.cpu.branchPred.condPredicted           9314513                       # Number of conditional branches predicted
system.cpu.branchPred.indirectHits            5686497                       # Number of indirect target hits.
system.cpu.branchPred.indirectLookups         7295355                       # Number of indirect predictor lookups.
system.cpu.branchPred.indirectMisses          1608858                       # Number of indirect misses.
system.cpu.branchPred.lookups                10036506                       # Number of BP lookups
system.cpu.branchPred.usedRAS                  398734                       # Number of times the RAS was used to get a target.
system.cpu.branchPredindirectMispredicted       546876                       # Number of mispredicted indirect branches.
system.cpu.cc_regfile_reads                  33758469                       # number of cc regfile reads
system.cpu.cc_regfile_writes                 46169473                       # number of cc regfile writes
system.cpu.commit.amos                              0                       # Number of atomic instructions committed
system.cpu.commit.branchMispredicts            783086                       # The number of times a branch was mispredicted
system.cpu.commit.branches                    5990529                       # Number of branches committed
system.cpu.commit.bw_lim_events              20056275                       # number cycles where commit BW limit reached
system.cpu.commit.commitNonSpecStalls           29447                       # The number of times commit has been forced to stall to communicate backwards
system.cpu.commit.commitSquashedInsts        38501388                       # The number of squashed insts skipped by commit
system.cpu.commit.committedInsts            100000000                       # Number of instructions committed
system.cpu.commit.committedOps              132596736                       # Number of ops (including micro ops) committed
system.cpu.commit.committed_per_cycle::samples    100326458                       # Number of insts commited each cycle
system.cpu.commit.committed_per_cycle::mean     1.321653                       # Number of insts commited each cycle
system.cpu.commit.committed_per_cycle::stdev     1.537976                       # Number of insts commited each cycle
system.cpu.commit.committed_per_cycle::underflows            0      0.00%      0.00% # Number of insts commited each cycle
system.cpu.commit.committed_per_cycle::0     43901215     43.76%     43.76% # Number of insts commited each cycle
system.cpu.commit.committed_per_cycle::1     24005610     23.93%     67.69% # Number of insts commited each cycle
system.cpu.commit.committed_per_cycle::2      8724048      8.70%     76.38% # Number of insts commited each cycle
system.cpu.commit.committed_per_cycle::3      3639310      3.63%     80.01% # Number of insts commited each cycle
system.cpu.commit.committed_per_cycle::4     20056275     19.99%    100.00% # Number of insts commited each cycle
system.cpu.commit.committed_per_cycle::overflows            0      0.00%    100.00% # Number of insts commited each cycle
system.cpu.commit.committed_per_cycle::min_value            0                       # Number of insts commited each cycle
system.cpu.commit.committed_per_cycle::max_value            4                       # Number of insts commited each cycle
system.cpu.commit.committed_per_cycle::total    100326458                       # Number of insts commited each cycle
system.cpu.commit.fp_insts                        663                       # Number of committed floating point instructions.
system.cpu.commit.function_calls               120080                       # Number of function calls committed.
system.cpu.commit.int_insts                 132470436                       # Number of committed integer instructions.
system.cpu.commit.loads                      48583195                       # Number of loads committed
system.cpu.commit.membars                          48                       # Number of memory barriers committed
system.cpu.commit.op_class_0::No_OpClass        94725      0.07%      0.07% # Class of committed instruction
system.cpu.commit.op_class_0::IntAlu         70500700     53.17%     53.24% # Class of committed instruction
system.cpu.commit.op_class_0::IntMult           20662      0.02%     53.26% # Class of committed instruction
system.cpu.commit.op_class_0::IntDiv               49      0.00%     53.26% # Class of committed instruction
system.cpu.commit.op_class_0::FloatAdd             15      0.00%     53.26% # Class of committed instruction
system.cpu.commit.op_class_0::FloatCmp              0      0.00%     53.26% # Class of committed instruction
system.cpu.commit.op_class_0::FloatCvt              0      0.00%     53.26% # Class of committed instruction
system.cpu.commit.op_class_0::FloatMult             0      0.00%     53.26% # Class of committed instruction
system.cpu.commit.op_class_0::FloatMultAcc            0      0.00%     53.26% # Class of committed instruction
system.cpu.commit.op_class_0::FloatDiv              0      0.00%     53.26% # Class of committed instruction
system.cpu.commit.op_class_0::FloatMisc             0      0.00%     53.26% # Class of committed instruction
system.cpu.commit.op_class_0::FloatSqrt             0      0.00%     53.26% # Class of committed instruction
system.cpu.commit.op_class_0::SimdAdd               0      0.00%     53.26% # Class of committed instruction
system.cpu.commit.op_class_0::SimdAddAcc            0      0.00%     53.26% # Class of committed instruction
system.cpu.commit.op_class_0::SimdAlu             118      0.00%     53.26% # Class of committed instruction
system.cpu.commit.op_class_0::SimdCmp               0      0.00%     53.26% # Class of committed instruction
system.cpu.commit.op_class_0::SimdCvt              90      0.00%     53.26% # Class of committed instruction
system.cpu.commit.op_class_0::SimdMisc            175      0.00%     53.26% # Class of committed instruction
system.cpu.commit.op_class_0::SimdMult              0      0.00%     53.26% # Class of committed instruction
system.cpu.commit.op_class_0::SimdMultAcc            0      0.00%     53.26% # Class of committed instruction
system.cpu.commit.op_class_0::SimdShift             0      0.00%     53.26% # Class of committed instruction
system.cpu.commit.op_class_0::SimdShiftAcc            0      0.00%     53.26% # Class of committed instruction
system.cpu.commit.op_class_0::SimdDiv               0      0.00%     53.26% # Class of committed instruction
system.cpu.commit.op_class_0::SimdSqrt              0      0.00%     53.26% # Class of committed instruction
system.cpu.commit.op_class_0::SimdFloatAdd            0      0.00%     53.26% # Class of committed instruction
system.cpu.commit.op_class_0::SimdFloatAlu            0      0.00%     53.26% # Class of committed instruction
system.cpu.commit.op_class_0::SimdFloatCmp            0      0.00%     53.26% # Class of committed instruction
system.cpu.commit.op_class_0::SimdFloatCvt            0      0.00%     53.26% # Class of committed instruction
system.cpu.commit.op_class_0::SimdFloatDiv            0      0.00%     53.26% # Class of committed instruction
system.cpu.commit.op_class_0::SimdFloatMisc            0      0.00%     53.26% # Class of committed instruction
system.cpu.commit.op_class_0::SimdFloatMult            0      0.00%     53.26% # Class of committed instruction
system.cpu.commit.op_class_0::SimdFloatMultAcc            0      0.00%     53.26% # Class of committed instruction
system.cpu.commit.op_class_0::SimdFloatSqrt            0      0.00%     53.26% # Class of committed instruction
system.cpu.commit.op_class_0::SimdReduceAdd            0      0.00%     53.26% # Class of committed instruction
system.cpu.commit.op_class_0::SimdReduceAlu            0      0.00%     53.26% # Class of committed instruction
system.cpu.commit.op_class_0::SimdReduceCmp            0      0.00%     53.26% # Class of committed instruction
system.cpu.commit.op_class_0::SimdFloatReduceAdd            0      0.00%     53.26% # Class of committed instruction
system.cpu.commit.op_class_0::SimdFloatReduceCmp            0      0.00%     53.26% # Class of committed instruction
system.cpu.commit.op_class_0::SimdAes               0      0.00%     53.26% # Class of committed instruction
system.cpu.commit.op_class_0::SimdAesMix            0      0.00%     53.26% # Class of committed instruction
system.cpu.commit.op_class_0::SimdSha1Hash            0      0.00%     53.26% # Class of committed instruction
system.cpu.commit.op_class_0::SimdSha1Hash2            0      0.00%     53.26% # Class of committed instruction
system.cpu.commit.op_class_0::SimdSha256Hash            0      0.00%     53.26% # Class of committed instruction
system.cpu.commit.op_class_0::SimdSha256Hash2            0      0.00%     53.26% # Class of committed instruction
system.cpu.commit.op_class_0::SimdShaSigma2            0      0.00%     53.26% # Class of committed instruction
system.cpu.commit.op_class_0::SimdShaSigma3            0      0.00%     53.26% # Class of committed instruction
system.cpu.commit.op_class_0::SimdPredAlu            0      0.00%     53.26% # Class of committed instruction
system.cpu.commit.op_class_0::MemRead        48583131     36.64%     89.90% # Class of committed instruction
system.cpu.commit.op_class_0::MemWrite       13396843     10.10%    100.00% # Class of committed instruction
system.cpu.commit.op_class_0::FloatMemRead           64      0.00%    100.00% # Class of committed instruction
system.cpu.commit.op_class_0::FloatMemWrite          164      0.00%    100.00% # Class of committed instruction
system.cpu.commit.op_class_0::IprAccess             0      0.00%    100.00% # Class of committed instruction
system.cpu.commit.op_class_0::InstPrefetch            0      0.00%    100.00% # Class of committed instruction
system.cpu.commit.op_class_0::total         132596736                       # Class of committed instruction
system.cpu.commit.refs                       61980202                       # Number of memory references committed
system.cpu.commit.swp_count                         0                       # Number of s/w prefetches committed
system.cpu.commit.vec_insts                         0                       # Number of committed Vector instructions.
system.cpu.committedInsts                   100000000                       # Number of Instructions Simulated
system.cpu.committedOps                     132596736                       # Number of Ops (including micro ops) Simulated
system.cpu.cpi                               1.061783                       # CPI: Cycles Per Instruction
system.cpu.cpi_total                         1.061783                       # CPI: Total CPI of All Threads
system.cpu.decode.BlockedCycles              61749394                       # Number of cycles decode is blocked
system.cpu.decode.DecodedInsts              193296103                       # Number of instructions handled by decode
system.cpu.decode.IdleCycles                  9564849                       # Number of cycles decode is idle
system.cpu.decode.RunCycles                  22488833                       # Number of cycles decode is running
system.cpu.decode.SquashCycles                1052859                       # Number of cycles decode is squashing
system.cpu.decode.UnblockCycles              11272350                       # Number of cycles decode is unblocking
system.cpu.dtb.rdAccesses                    58466338                       # TLB accesses on read requests
system.cpu.dtb.rdMisses                        182405                       # TLB misses on read requests
system.cpu.dtb.wrAccesses                    19764859                       # TLB accesses on write requests
system.cpu.dtb.wrMisses                        373160                       # TLB misses on write requests
system.cpu.fetch.Branches                    10036506                       # Number of branches that fetch encountered
system.cpu.fetch.CacheLines                  14645366                       # Number of cache lines fetched
system.cpu.fetch.Cycles                      89758926                       # Number of cycles fetch has run and was not squashing or blocked
system.cpu.fetch.IcacheSquashes                186595                       # Number of outstanding Icache misses that were squashed
system.cpu.fetch.Insts                      153087773                       # Number of instructions fetch has processed
system.cpu.fetch.MiscStallCycles                   55                       # Number of cycles fetch has spent waiting on interrupts, or bad addresses, or out of MSHRs
system.cpu.fetch.PendingQuiesceStallCycles            7                       # Number of stall cycles due to pending quiesce instructions
system.cpu.fetch.PendingTrapStallCycles           498                       # Number of stall cycles due to pending traps
system.cpu.fetch.SquashCycles                 2105718                       # Number of cycles fetch has spent squashing
system.cpu.fetch.branchRate                  0.094525                       # Number of branch fetches per cycle
system.cpu.fetch.icacheStallCycles           15315940                       # Number of cycles fetch is stalled on an Icache miss
system.cpu.fetch.predictedBranches            6085231                       # Number of branches that fetch has predicted taken
system.cpu.fetch.rate                        1.441800                       # Number of inst fetches per cycle
system.cpu.fetch.rateDist::samples          106128285                       # Number of instructions fetched each cycle (Total)
system.cpu.fetch.rateDist::mean              1.993450                       # Number of instructions fetched each cycle (Total)
system.cpu.fetch.rateDist::stdev             2.639727                       # Number of instructions fetched each cycle (Total)
system.cpu.fetch.rateDist::underflows               0      0.00%      0.00% # Number of instructions fetched each cycle (Total)
system.cpu.fetch.rateDist::0                 63038929     59.40%     59.40% # Number of instructions fetched each cycle (Total)
system.cpu.fetch.rateDist::1                  3345646      3.15%     62.55% # Number of instructions fetched each cycle (Total)
system.cpu.fetch.rateDist::2                  2655175      2.50%     65.05% # Number of instructions fetched each cycle (Total)
system.cpu.fetch.rateDist::3                  3873942      3.65%     68.70% # Number of instructions fetched each cycle (Total)
system.cpu.fetch.rateDist::4                  2371171      2.23%     70.94% # Number of instructions fetched each cycle (Total)
system.cpu.fetch.rateDist::5                  3261656      3.07%     74.01% # Number of instructions fetched each cycle (Total)
system.cpu.fetch.rateDist::6                 27581766     25.99%    100.00% # Number of instructions fetched each cycle (Total)
system.cpu.fetch.rateDist::overflows                0      0.00%    100.00% # Number of instructions fetched each cycle (Total)
system.cpu.fetch.rateDist::min_value                0                       # Number of instructions fetched each cycle (Total)
system.cpu.fetch.rateDist::max_value                6                       # Number of instructions fetched each cycle (Total)
system.cpu.fetch.rateDist::total            106128285                       # Number of instructions fetched each cycle (Total)
system.cpu.fp_regfile_reads                     36747                       # number of floating regfile reads
system.cpu.fp_regfile_writes                     1773                       # number of floating regfile writes
system.cpu.idleCycles                           49972                       # Total number of cycles that the CPU has spent unscheduled due to idling
system.cpu.iew.branchMispredicts               874035                       # Number of branch mispredicts detected at execute
system.cpu.iew.exec_branches                  7209508                       # Number of branches executed
system.cpu.iew.exec_nop                             0                       # number of nop insts executed
system.cpu.iew.exec_rate                     1.551672                       # Inst execution rate
system.cpu.iew.exec_refs                     78251086                       # number of memory reference insts executed
system.cpu.iew.exec_stores                   19764858                       # Number of stores executed
system.cpu.iew.exec_swp                             0                       # number of swp insts executed
system.cpu.iew.iewBlockCycles                10387624                       # Number of cycles IEW is blocking
system.cpu.iew.iewDispLoadInsts              63891361                       # Number of dispatched load instructions
system.cpu.iew.iewDispNonSpecInsts             936728                       # Number of dispatched non-speculative instructions
system.cpu.iew.iewDispSquashedInsts             58485                       # Number of squashed instructions skipped by dispatch
system.cpu.iew.iewDispStoreInsts             22638682                       # Number of dispatched store instructions
system.cpu.iew.iewDispatchedInsts           182561149                       # Number of instructions dispatched to IQ
system.cpu.iew.iewExecLoadInsts              58486228                       # Number of load instructions executed
system.cpu.iew.iewExecSquashedInsts           1683223                       # Number of squashed instructions skipped in execute
system.cpu.iew.iewExecutedInsts             164753852                       # Number of executed instructions
system.cpu.iew.iewIQFullEvents                  66767                       # Number of times the IQ has become full, causing a stall
system.cpu.iew.iewIdleCycles                        0                       # Number of cycles IEW is idle
system.cpu.iew.iewLSQFullEvents                503121                       # Number of times the LSQ has become full, causing a stall
system.cpu.iew.iewSquashCycles                1052859                       # Number of cycles IEW is squashing
system.cpu.iew.iewUnblockCycles                715446                       # Number of cycles IEW is unblocking
system.cpu.iew.lsq.thread0.blockedLoads             0                       # Number of blocked loads due to partial load-store forwarding
system.cpu.iew.lsq.thread0.cacheBlocked         17840                       # Number of times an access to memory failed due to the cache being blocked
system.cpu.iew.lsq.thread0.forwLoads         12577640                       # Number of loads that had data forwarded from stores
system.cpu.iew.lsq.thread0.ignoredResponses        49096                       # Number of memory responses ignored because the instruction is squashed
system.cpu.iew.lsq.thread0.invAddrLoads             0                       # Number of loads ignored due to an invalid address
system.cpu.iew.lsq.thread0.invAddrSwpfs             0                       # Number of software prefetches ignored due to an invalid address
system.cpu.iew.lsq.thread0.memOrderViolation        39153                       # Number of memory ordering violations
system.cpu.iew.lsq.thread0.rescheduledLoads          108                       # Number of loads that were rescheduled
system.cpu.iew.lsq.thread0.squashedLoads     15308136                       # Number of loads squashed
system.cpu.iew.lsq.thread0.squashedStores      9241666                       # Number of stores squashed
system.cpu.iew.memOrderViolationEvents          39153                       # Number of memory order violations
system.cpu.iew.predictedNotTakenIncorrect       783549                       # Number of branches that were predicted not taken incorrectly
system.cpu.iew.predictedTakenIncorrect          90486                       # Number of branches that were predicted taken incorrectly
system.cpu.iew.wb_consumers                 169561943                       # num instructions consuming a value
system.cpu.iew.wb_count                     156948295                       # cumulative count of insts written-back
system.cpu.iew.wb_fanout                     0.736565                       # average fanout of values written-back
system.cpu.iew.wb_producers                 124893380                       # num instructions producing a value
system.cpu.iew.wb_rate                       1.478159                       # insts written-back per cycle
system.cpu.iew.wb_sent                      163672432                       # cumulative count of insts sent to commit
system.cpu.int_regfile_reads                295766251                       # number of integer regfile reads
system.cpu.int_regfile_writes               130460616                       # number of integer regfile writes
system.cpu.ipc                               0.941812                       # IPC: Instructions Per Cycle
system.cpu.ipc_total                         0.941812                       # IPC: Total IPC of All Threads
system.cpu.iq.FU_type_0::No_OpClass           6447354      3.87%      3.87% # Type of FU issued
system.cpu.iq.FU_type_0::IntAlu              80587413     48.42%     52.29% # Type of FU issued
system.cpu.iq.FU_type_0::IntMult                20690      0.01%     52.31% # Type of FU issued
system.cpu.iq.FU_type_0::IntDiv                    50      0.00%     52.31% # Type of FU issued
system.cpu.iq.FU_type_0::FloatAdd                 196      0.00%     52.31% # Type of FU issued
system.cpu.iq.FU_type_0::FloatCmp                   0      0.00%     52.31% # Type of FU issued
system.cpu.iq.FU_type_0::FloatCvt                   0      0.00%     52.31% # Type of FU issued
system.cpu.iq.FU_type_0::FloatMult                  0      0.00%     52.31% # Type of FU issued
system.cpu.iq.FU_type_0::FloatMultAcc               0      0.00%     52.31% # Type of FU issued
system.cpu.iq.FU_type_0::FloatDiv                   0      0.00%     52.31% # Type of FU issued
system.cpu.iq.FU_type_0::FloatMisc                  0      0.00%     52.31% # Type of FU issued
system.cpu.iq.FU_type_0::FloatSqrt                  0      0.00%     52.31% # Type of FU issued
system.cpu.iq.FU_type_0::SimdAdd                    0      0.00%     52.31% # Type of FU issued
system.cpu.iq.FU_type_0::SimdAddAcc                 0      0.00%     52.31% # Type of FU issued
system.cpu.iq.FU_type_0::SimdAlu                  284      0.00%     52.31% # Type of FU issued
system.cpu.iq.FU_type_0::SimdCmp                    0      0.00%     52.31% # Type of FU issued
system.cpu.iq.FU_type_0::SimdCvt                   94      0.00%     52.31% # Type of FU issued
system.cpu.iq.FU_type_0::SimdMisc                1102      0.00%     52.31% # Type of FU issued
system.cpu.iq.FU_type_0::SimdMult                   0      0.00%     52.31% # Type of FU issued
system.cpu.iq.FU_type_0::SimdMultAcc                0      0.00%     52.31% # Type of FU issued
system.cpu.iq.FU_type_0::SimdShift                  0      0.00%     52.31% # Type of FU issued
system.cpu.iq.FU_type_0::SimdShiftAcc               0      0.00%     52.31% # Type of FU issued
system.cpu.iq.FU_type_0::SimdDiv                    0      0.00%     52.31% # Type of FU issued
system.cpu.iq.FU_type_0::SimdSqrt                   0      0.00%     52.31% # Type of FU issued
system.cpu.iq.FU_type_0::SimdFloatAdd               0      0.00%     52.31% # Type of FU issued
system.cpu.iq.FU_type_0::SimdFloatAlu               0      0.00%     52.31% # Type of FU issued
system.cpu.iq.FU_type_0::SimdFloatCmp               0      0.00%     52.31% # Type of FU issued
system.cpu.iq.FU_type_0::SimdFloatCvt               0      0.00%     52.31% # Type of FU issued
system.cpu.iq.FU_type_0::SimdFloatDiv               0      0.00%     52.31% # Type of FU issued
system.cpu.iq.FU_type_0::SimdFloatMisc              0      0.00%     52.31% # Type of FU issued
system.cpu.iq.FU_type_0::SimdFloatMult              0      0.00%     52.31% # Type of FU issued
system.cpu.iq.FU_type_0::SimdFloatMultAcc            0      0.00%     52.31% # Type of FU issued
system.cpu.iq.FU_type_0::SimdFloatSqrt              0      0.00%     52.31% # Type of FU issued
system.cpu.iq.FU_type_0::SimdReduceAdd              0      0.00%     52.31% # Type of FU issued
system.cpu.iq.FU_type_0::SimdReduceAlu              0      0.00%     52.31% # Type of FU issued
system.cpu.iq.FU_type_0::SimdReduceCmp              0      0.00%     52.31% # Type of FU issued
system.cpu.iq.FU_type_0::SimdFloatReduceAdd            0      0.00%     52.31% # Type of FU issued
system.cpu.iq.FU_type_0::SimdFloatReduceCmp            0      0.00%     52.31% # Type of FU issued
system.cpu.iq.FU_type_0::SimdAes                    0      0.00%     52.31% # Type of FU issued
system.cpu.iq.FU_type_0::SimdAesMix                 0      0.00%     52.31% # Type of FU issued
system.cpu.iq.FU_type_0::SimdSha1Hash               0      0.00%     52.31% # Type of FU issued
system.cpu.iq.FU_type_0::SimdSha1Hash2              0      0.00%     52.31% # Type of FU issued
system.cpu.iq.FU_type_0::SimdSha256Hash             0      0.00%     52.31% # Type of FU issued
system.cpu.iq.FU_type_0::SimdSha256Hash2            0      0.00%     52.31% # Type of FU issued
system.cpu.iq.FU_type_0::SimdShaSigma2              0      0.00%     52.31% # Type of FU issued
system.cpu.iq.FU_type_0::SimdShaSigma3              0      0.00%     52.31% # Type of FU issued
system.cpu.iq.FU_type_0::SimdPredAlu                0      0.00%     52.31% # Type of FU issued
system.cpu.iq.FU_type_0::MemRead             59205139     35.57%     87.88% # Type of FU issued
system.cpu.iq.FU_type_0::MemWrite            20123566     12.09%     99.97% # Type of FU issued
system.cpu.iq.FU_type_0::FloatMemRead              78      0.00%     99.97% # Type of FU issued
system.cpu.iq.FU_type_0::FloatMemWrite          51110      0.03%    100.00% # Type of FU issued
system.cpu.iq.FU_type_0::IprAccess                  0      0.00%    100.00% # Type of FU issued
system.cpu.iq.FU_type_0::InstPrefetch               0      0.00%    100.00% # Type of FU issued
system.cpu.iq.FU_type_0::total              166437076                       # Type of FU issued
system.cpu.iq.fp_alu_accesses                   52991                       # Number of floating point alu accesses
system.cpu.iq.fp_inst_queue_reads              159947                       # Number of floating instruction queue reads
system.cpu.iq.fp_inst_queue_wakeup_accesses        35597                       # Number of floating instruction queue wakeup accesses
system.cpu.iq.fp_inst_queue_writes             224997                       # Number of floating instruction queue writes
system.cpu.iq.fu_busy_cnt                           0                       # FU busy when requested
system.cpu.iq.fu_busy_rate                          0                       # FU busy rate (busy events/executed inst)
system.cpu.iq.fu_full::No_OpClass                   0                       # attempts to use FU when none available
system.cpu.iq.fu_full::IntAlu                       0                       # attempts to use FU when none available
system.cpu.iq.fu_full::IntMult                      0                       # attempts to use FU when none available
system.cpu.iq.fu_full::IntDiv                       0                       # attempts to use FU when none available
system.cpu.iq.fu_full::FloatAdd                     0                       # attempts to use FU when none available
system.cpu.iq.fu_full::FloatCmp                     0                       # attempts to use FU when none available
system.cpu.iq.fu_full::FloatCvt                     0                       # attempts to use FU when none available
system.cpu.iq.fu_full::FloatMult                    0                       # attempts to use FU when none available
system.cpu.iq.fu_full::FloatMultAcc                 0                       # attempts to use FU when none available
system.cpu.iq.fu_full::FloatDiv                     0                       # attempts to use FU when none available
system.cpu.iq.fu_full::FloatMisc                    0                       # attempts to use FU when none available
system.cpu.iq.fu_full::FloatSqrt                    0                       # attempts to use FU when none available
system.cpu.iq.fu_full::SimdAdd                      0                       # attempts to use FU when none available
system.cpu.iq.fu_full::SimdAddAcc                   0                       # attempts to use FU when none available
system.cpu.iq.fu_full::SimdAlu                      0                       # attempts to use FU when none available
system.cpu.iq.fu_full::SimdCmp                      0                       # attempts to use FU when none available
system.cpu.iq.fu_full::SimdCvt                      0                       # attempts to use FU when none available
system.cpu.iq.fu_full::SimdMisc                     0                       # attempts to use FU when none available
system.cpu.iq.fu_full::SimdMult                     0                       # attempts to use FU when none available
system.cpu.iq.fu_full::SimdMultAcc                  0                       # attempts to use FU when none available
system.cpu.iq.fu_full::SimdShift                    0                       # attempts to use FU when none available
system.cpu.iq.fu_full::SimdShiftAcc                 0                       # attempts to use FU when none available
system.cpu.iq.fu_full::SimdDiv                      0                       # attempts to use FU when none available
system.cpu.iq.fu_full::SimdSqrt                     0                       # attempts to use FU when none available
system.cpu.iq.fu_full::SimdFloatAdd                 0                       # attempts to use FU when none available
system.cpu.iq.fu_full::SimdFloatAlu                 0                       # attempts to use FU when none available
system.cpu.iq.fu_full::SimdFloatCmp                 0                       # attempts to use FU when none available
system.cpu.iq.fu_full::SimdFloatCvt                 0                       # attempts to use FU when none available
system.cpu.iq.fu_full::SimdFloatDiv                 0                       # attempts to use FU when none available
system.cpu.iq.fu_full::SimdFloatMisc                0                       # attempts to use FU when none available
system.cpu.iq.fu_full::SimdFloatMult                0                       # attempts to use FU when none available
system.cpu.iq.fu_full::SimdFloatMultAcc             0                       # attempts to use FU when none available
system.cpu.iq.fu_full::SimdFloatSqrt                0                       # attempts to use FU when none available
system.cpu.iq.fu_full::SimdReduceAdd                0                       # attempts to use FU when none available
system.cpu.iq.fu_full::SimdReduceAlu                0                       # attempts to use FU when none available
system.cpu.iq.fu_full::SimdReduceCmp                0                       # attempts to use FU when none available
system.cpu.iq.fu_full::SimdFloatReduceAdd            0                       # attempts to use FU when none available
system.cpu.iq.fu_full::SimdFloatReduceCmp            0                       # attempts to use FU when none available
system.cpu.iq.fu_full::SimdAes                      0                       # attempts to use FU when none available
system.cpu.iq.fu_full::SimdAesMix                   0                       # attempts to use FU when none available
system.cpu.iq.fu_full::SimdSha1Hash                 0                       # attempts to use FU when none available
system.cpu.iq.fu_full::SimdSha1Hash2                0                       # attempts to use FU when none available
system.cpu.iq.fu_full::SimdSha256Hash               0                       # attempts to use FU when none available
system.cpu.iq.fu_full::SimdSha256Hash2              0                       # attempts to use FU when none available
system.cpu.iq.fu_full::SimdShaSigma2                0                       # attempts to use FU when none available
system.cpu.iq.fu_full::SimdShaSigma3                0                       # attempts to use FU when none available
system.cpu.iq.fu_full::SimdPredAlu                  0                       # attempts to use FU when none available
system.cpu.iq.fu_full::MemRead                      0                       # attempts to use FU when none available
system.cpu.iq.fu_full::MemWrite                     0                       # attempts to use FU when none available
system.cpu.iq.fu_full::FloatMemRead                 0                       # attempts to use FU when none available
system.cpu.iq.fu_full::FloatMemWrite                0                       # attempts to use FU when none available
system.cpu.iq.fu_full::IprAccess                    0                       # attempts to use FU when none available
system.cpu.iq.fu_full::InstPrefetch                 0                       # attempts to use FU when none available
system.cpu.iq.int_alu_accesses              159936731                       # Number of integer alu accesses
system.cpu.iq.int_inst_queue_reads          440968556                       # Number of integer instruction queue reads
system.cpu.iq.int_inst_queue_wakeup_accesses    156912698                       # Number of integer instruction queue wakeup accesses
system.cpu.iq.int_inst_queue_writes         232338864                       # Number of integer instruction queue writes
system.cpu.iq.iqInstsAdded                  181623858                       # Number of instructions added to the IQ (excludes non-spec)
system.cpu.iq.iqInstsIssued                 166437076                       # Number of instructions issued
system.cpu.iq.iqNonSpecInstsAdded              937291                       # Number of non-speculative instructions added to the IQ
system.cpu.iq.iqSquashedInstsExamined        49964337                       # Number of squashed instructions iterated over during squash; mainly for profiling
system.cpu.iq.iqSquashedInstsIssued           2126067                       # Number of squashed instructions issued
system.cpu.iq.iqSquashedNonSpecRemoved         907844                       # Number of squashed non-spec instructions that were removed
system.cpu.iq.iqSquashedOperandsExamined     53570387                       # Number of squashed operands that are examined and possibly removed from graph
system.cpu.iq.issued_per_cycle::samples     106128285                       # Number of insts issued each cycle
system.cpu.iq.issued_per_cycle::mean         1.568263                       # Number of insts issued each cycle
system.cpu.iq.issued_per_cycle::stdev        1.516418                       # Number of insts issued each cycle
system.cpu.iq.issued_per_cycle::underflows            0      0.00%      0.00% # Number of insts issued each cycle
system.cpu.iq.issued_per_cycle::0            36782558     34.66%     34.66% # Number of insts issued each cycle
system.cpu.iq.issued_per_cycle::1            23839762     22.46%     57.12% # Number of insts issued each cycle
system.cpu.iq.issued_per_cycle::2            14556086     13.72%     70.84% # Number of insts issued each cycle
system.cpu.iq.issued_per_cycle::3            10314374      9.72%     80.56% # Number of insts issued each cycle
system.cpu.iq.issued_per_cycle::4            20635505     19.44%    100.00% # Number of insts issued each cycle
system.cpu.iq.issued_per_cycle::overflows            0      0.00%    100.00% # Number of insts issued each cycle
system.cpu.iq.issued_per_cycle::min_value            0                       # Number of insts issued each cycle
system.cpu.iq.issued_per_cycle::max_value            4                       # Number of insts issued each cycle
system.cpu.iq.issued_per_cycle::total       106128285                       # Number of insts issued each cycle
system.cpu.iq.rate                           1.567525                       # Inst issue rate
system.cpu.iq.vec_alu_accesses                      0                       # Number of vector alu accesses
system.cpu.iq.vec_inst_queue_reads                  0                       # Number of vector instruction queue reads
system.cpu.iq.vec_inst_queue_wakeup_accesses            0                       # Number of vector instruction queue wakeup accesses
system.cpu.iq.vec_inst_queue_writes                 0                       # Number of vector instruction queue writes
system.cpu.itb.rdAccesses                           0                       # TLB accesses on read requests
system.cpu.itb.rdMisses                             0                       # TLB misses on read requests
system.cpu.itb.wrAccesses                    14645425                       # TLB accesses on write requests
system.cpu.itb.wrMisses                           111                       # TLB misses on write requests
system.cpu.memDep0.conflictingLoads          19594542                       # Number of conflicting loads.
system.cpu.memDep0.conflictingStores          5156518                       # Number of conflicting stores.
system.cpu.memDep0.insertedLoads             63891361                       # Number of loads inserted to the mem dependence unit.
system.cpu.memDep0.insertedStores            22638682                       # Number of stores inserted to the mem dependence unit.
system.cpu.misc_regfile_reads                93043041                       # number of misc regfile reads
system.cpu.numCycles                        106178257                       # number of cpu cycles simulated
system.cpu.numWorkItemsCompleted                    0                       # number of work items this cpu completed
system.cpu.numWorkItemsStarted                      0                       # number of work items this cpu started
system.cpu.rename.BlockCycles                20487255                       # Number of cycles rename is blocking
system.cpu.rename.CommittedMaps             156634101                       # Number of HB maps that are committed
system.cpu.rename.IQFullEvents               16434286                       # Number of times rename has blocked due to IQ full
system.cpu.rename.IdleCycles                 14202112                       # Number of cycles rename is idle
system.cpu.rename.LQFullEvents                9335387                       # Number of times rename has blocked due to LQ full
system.cpu.rename.ROBFullEvents                  8647                       # Number of times rename has blocked due to ROB full
system.cpu.rename.RenameLookups             487185597                       # Number of register rename lookups that rename has made
system.cpu.rename.RenamedInsts              188707622                       # Number of instructions processed by rename
system.cpu.rename.RenamedOperands           201611726                       # Number of destination operands rename has renamed
system.cpu.rename.RunCycles                  28559858                       # Number of cycles rename is running
system.cpu.rename.SQFullEvents               14489466                       # Number of times rename has blocked due to SQ full
system.cpu.rename.SquashCycles                1052859                       # Number of cycles rename is squashing
system.cpu.rename.UnblockCycles              41822628                       # Number of cycles rename is unblocking
system.cpu.rename.UndoneMaps                 44977536                       # Number of HB maps that are undone due to squashing
system.cpu.rename.fp_rename_lookups            125646                       # Number of floating rename lookups
system.cpu.rename.int_rename_lookups        340318736                       # Number of integer rename lookups
system.cpu.rename.serializeStallCycles           3573                       # count of cycles rename stalled for serializing inst
system.cpu.rename.serializingInsts                 94                       # count of serializing insts renamed
system.cpu.rename.skidInsts                  47058926                       # count of insts added to the skid buffer
system.cpu.rename.tempSerializingInsts             88                       # count of temporary serializing insts renamed
system.cpu.rob.rob_reads                    248322355                       # The number of ROB reads
system.cpu.rob.rob_writes                   348052175                       # The number of ROB writes
system.cpu.timesIdled                             425                       # Number of times that the entire CPU went into an idle state and unscheduled itself
system.cpu.workload.numSyscalls                    86                       # Number of system calls
system.membus.snoop_filter.hit_multi_requests            0                       # Number of requests hitting in the snoop filter with multiple (>1) holders of the requested data.
system.membus.snoop_filter.hit_multi_snoops            0                       # Number of snoops hitting in the snoop filter with multiple (>1) holders of the requested data.
system.membus.snoop_filter.hit_single_requests        94042                       # Number of requests hitting in the snoop filter with a single holder of the requested data.
system.membus.snoop_filter.hit_single_snoops            0                       # Number of snoops hitting in the snoop filter with a single holder of the requested data.
system.membus.snoop_filter.tot_requests        275360                       # Total number of requests made to the snoop filter.
system.membus.snoop_filter.tot_snoops               0                       # Total number of snoops made to the snoop filter.
system.tol2bus.snoop_filter.hit_multi_requests            3                       # Number of requests hitting in the snoop filter with multiple (>1) holders of the requested data.
system.tol2bus.snoop_filter.hit_multi_snoops            0                       # Number of snoops hitting in the snoop filter with multiple (>1) holders of the requested data.
system.tol2bus.snoop_filter.hit_single_requests       732908                       # Number of requests hitting in the snoop filter with a single holder of the requested data.
system.tol2bus.snoop_filter.hit_single_snoops           69                       # Number of snoops hitting in the snoop filter with a single holder of the requested data.
system.tol2bus.snoop_filter.tot_requests      1467590                       # Total number of requests made to the snoop filter.
system.tol2bus.snoop_filter.tot_snoops             69                       # Total number of snoops made to the snoop filter.
system.membus.pwrStateResidencyTicks::UNDEFINED  53089128000                       # Cumulative time (in ticks) in various power states
system.membus.trans_dist::ReadResp              61837                       # Transaction distribution
system.membus.trans_dist::WritebackDirty        52893                       # Transaction distribution
system.membus.trans_dist::CleanEvict            41149                       # Transaction distribution
system.membus.trans_dist::ReadExReq            119481                       # Transaction distribution
system.membus.trans_dist::ReadExResp           119481                       # Transaction distribution
system.membus.trans_dist::ReadSharedReq         61837                       # Transaction distribution
system.membus.pkt_count_system.l2.mem_side::system.mem_ctrls.port       456678                       # Packet count per connected master and slave (bytes)
system.membus.pkt_count_system.l2.mem_side::total       456678                       # Packet count per connected master and slave (bytes)
system.membus.pkt_count::total                 456678                       # Packet count per connected master and slave (bytes)
system.membus.pkt_size_system.l2.mem_side::system.mem_ctrls.port     14989504                       # Cumulative packet size per connected master and slave (bytes)
system.membus.pkt_size_system.l2.mem_side::total     14989504                       # Cumulative packet size per connected master and slave (bytes)
system.membus.pkt_size::total                14989504                       # Cumulative packet size per connected master and slave (bytes)
system.membus.snoops                                0                       # Total snoops (count)
system.membus.snoopTraffic                          0                       # Total snoop traffic (bytes)
system.membus.snoop_fanout::samples            181318                       # Request fanout histogram
system.membus.snoop_fanout::mean                    0                       # Request fanout histogram
system.membus.snoop_fanout::stdev                   0                       # Request fanout histogram
system.membus.snoop_fanout::underflows              0      0.00%      0.00% # Request fanout histogram
system.membus.snoop_fanout::0                  181318    100.00%    100.00% # Request fanout histogram
system.membus.snoop_fanout::1                       0      0.00%    100.00% # Request fanout histogram
system.membus.snoop_fanout::overflows               0      0.00%    100.00% # Request fanout histogram
system.membus.snoop_fanout::min_value               0                       # Request fanout histogram
system.membus.snoop_fanout::max_value               0                       # Request fanout histogram
system.membus.snoop_fanout::total              181318                       # Request fanout histogram
system.membus.reqLayer2.occupancy           530031500                       # Layer occupancy (ticks)
system.membus.reqLayer2.utilization               1.0                       # Layer utilization (%)
system.membus.respLayer1.occupancy          963717750                       # Layer occupancy (ticks)
system.membus.respLayer1.utilization              1.8                       # Layer utilization (%)
system.tol2bus.pwrStateResidencyTicks::UNDEFINED  53089128000                       # Cumulative time (in ticks) in various power states
system.tol2bus.trans_dist::ReadResp            440829                       # Transaction distribution
system.tol2bus.trans_dist::WritebackDirty       731753                       # Transaction distribution
system.tol2bus.trans_dist::WritebackClean           46                       # Transaction distribution
system.tol2bus.trans_dist::CleanEvict           95207                       # Transaction distribution
system.tol2bus.trans_dist::ReadExReq           293853                       # Transaction distribution
system.tol2bus.trans_dist::ReadExResp          293853                       # Transaction distribution
system.tol2bus.trans_dist::ReadCleanReq           796                       # Transaction distribution
system.tol2bus.trans_dist::ReadSharedReq       440033                       # Transaction distribution
system.tol2bus.pkt_count_system.cpu.icache.mem_side::system.l2.cpu_side         1638                       # Packet count per connected master and slave (bytes)
system.tol2bus.pkt_count_system.cpu.dcache.mem_side::system.l2.cpu_side      2200634                       # Packet count per connected master and slave (bytes)
system.tol2bus.pkt_count::total               2202272                       # Packet count per connected master and slave (bytes)
system.tol2bus.pkt_size_system.cpu.icache.mem_side::system.l2.cpu_side        53888                       # Cumulative packet size per connected master and slave (bytes)
system.tol2bus.pkt_size_system.cpu.dcache.mem_side::system.l2.cpu_side     90415744                       # Cumulative packet size per connected master and slave (bytes)
system.tol2bus.pkt_size::total               90469632                       # Cumulative packet size per connected master and slave (bytes)
system.tol2bus.snoops                           94098                       # Total snoops (count)
system.tol2bus.snoopTraffic                   3385152                       # Total snoop traffic (bytes)
system.tol2bus.snoop_fanout::samples           828780                       # Request fanout histogram
system.tol2bus.snoop_fanout::mean            0.000087                       # Request fanout histogram
system.tol2bus.snoop_fanout::stdev           0.009320                       # Request fanout histogram
system.tol2bus.snoop_fanout::underflows             0      0.00%      0.00% # Request fanout histogram
system.tol2bus.snoop_fanout::0                 828708     99.99%     99.99% # Request fanout histogram
system.tol2bus.snoop_fanout::1                     72      0.01%    100.00% # Request fanout histogram
system.tol2bus.snoop_fanout::2                      0      0.00%    100.00% # Request fanout histogram
system.tol2bus.snoop_fanout::3                      0      0.00%    100.00% # Request fanout histogram
system.tol2bus.snoop_fanout::4                      0      0.00%    100.00% # Request fanout histogram
system.tol2bus.snoop_fanout::overflows              0      0.00%    100.00% # Request fanout histogram
system.tol2bus.snoop_fanout::min_value              0                       # Request fanout histogram
system.tol2bus.snoop_fanout::max_value              1                       # Request fanout histogram
system.tol2bus.snoop_fanout::total             828780                       # Request fanout histogram
system.tol2bus.reqLayer0.occupancy         1412701000                       # Layer occupancy (ticks)
system.tol2bus.reqLayer0.utilization              2.7                       # Layer utilization (%)
system.tol2bus.respLayer1.occupancy        1100829000                       # Layer occupancy (ticks)
system.tol2bus.respLayer1.utilization             2.1                       # Layer utilization (%)
system.tol2bus.respLayer0.occupancy           1194000                       # Layer occupancy (ticks)
system.tol2bus.respLayer0.utilization             0.0                       # Layer utilization (%)
system.voltage_domain.voltage                       1                       # Voltage in Volts
system.clk_domain.clock                          1000                       # Clock period in ticks
system.l2.pwrStateResidencyTicks::UNDEFINED  53089128000                       # Cumulative time (in ticks) in various power states
system.l2.demand_hits::.cpu.inst                    4                       # number of demand (read+write) hits
system.l2.demand_hits::.cpu.data               553360                       # number of demand (read+write) hits
system.l2.demand_hits::total                   553364                       # number of demand (read+write) hits
system.l2.overall_hits::.cpu.inst                   4                       # number of overall hits
system.l2.overall_hits::.cpu.data              553360                       # number of overall hits
system.l2.overall_hits::total                  553364                       # number of overall hits
system.l2.demand_misses::.cpu.inst                792                       # number of demand (read+write) misses
system.l2.demand_misses::.cpu.data             180526                       # number of demand (read+write) misses
system.l2.demand_misses::total                 181318                       # number of demand (read+write) misses
system.l2.overall_misses::.cpu.inst               792                       # number of overall misses
system.l2.overall_misses::.cpu.data            180526                       # number of overall misses
system.l2.overall_misses::total                181318                       # number of overall misses
system.l2.demand_miss_latency::.cpu.inst     62785500                       # number of demand (read+write) miss cycles
system.l2.demand_miss_latency::.cpu.data  14811581500                       # number of demand (read+write) miss cycles
system.l2.demand_miss_latency::total      14874367000                       # number of demand (read+write) miss cycles
system.l2.overall_miss_latency::.cpu.inst     62785500                       # number of overall miss cycles
system.l2.overall_miss_latency::.cpu.data  14811581500                       # number of overall miss cycles
system.l2.overall_miss_latency::total     14874367000                       # number of overall miss cycles
system.l2.demand_accesses::.cpu.inst              796                       # number of demand (read+write) accesses
system.l2.demand_accesses::.cpu.data           733886                       # number of demand (read+write) accesses
system.l2.demand_accesses::total               734682                       # number of demand (read+write) accesses
system.l2.overall_accesses::.cpu.inst             796                       # number of overall (read+write) accesses
system.l2.overall_accesses::.cpu.data          733886                       # number of overall (read+write) accesses
system.l2.overall_accesses::total              734682                       # number of overall (read+write) accesses
system.l2.demand_miss_rate::.cpu.inst        0.994975                       # miss rate for demand accesses
system.l2.demand_miss_rate::.cpu.data        0.245986                       # miss rate for demand accesses
system.l2.demand_miss_rate::total            0.246798                       # miss rate for demand accesses
system.l2.overall_miss_rate::.cpu.inst       0.994975                       # miss rate for overall accesses
system.l2.overall_miss_rate::.cpu.data       0.245986                       # miss rate for overall accesses
system.l2.overall_miss_rate::total           0.246798                       # miss rate for overall accesses
system.l2.demand_avg_miss_latency::.cpu.inst 79274.621212                       # average overall miss latency
system.l2.demand_avg_miss_latency::.cpu.data 82046.804892                       # average overall miss latency
system.l2.demand_avg_miss_latency::total 82034.695949                       # average overall miss latency
system.l2.overall_avg_miss_latency::.cpu.inst 79274.621212                       # average overall miss latency
system.l2.overall_avg_miss_latency::.cpu.data 82046.804892                       # average overall miss latency
system.l2.overall_avg_miss_latency::total 82034.695949                       # average overall miss latency
system.l2.blocked_cycles::no_mshrs                  0                       # number of cycles access was blocked
system.l2.blocked_cycles::no_targets                0                       # number of cycles access was blocked
system.l2.blocked::no_mshrs                         0                       # number of cycles access was blocked
system.l2.blocked::no_targets                       0                       # number of cycles access was blocked
system.l2.avg_blocked_cycles::no_mshrs            nan                       # average number of cycles each access was blocked
system.l2.avg_blocked_cycles::no_targets          nan                       # average number of cycles each access was blocked
system.l2.writebacks::.writebacks               52893                       # number of writebacks
system.l2.writebacks::total                     52893                       # number of writebacks
system.l2.demand_mshr_misses::.cpu.inst           792                       # number of demand (read+write) MSHR misses
system.l2.demand_mshr_misses::.cpu.data        180526                       # number of demand (read+write) MSHR misses
system.l2.demand_mshr_misses::total            181318                       # number of demand (read+write) MSHR misses
system.l2.overall_mshr_misses::.cpu.inst          792                       # number of overall MSHR misses
system.l2.overall_mshr_misses::.cpu.data       180526                       # number of overall MSHR misses
system.l2.overall_mshr_misses::total           181318                       # number of overall MSHR misses
system.l2.demand_mshr_miss_latency::.cpu.inst     54865500                       # number of demand (read+write) MSHR miss cycles
system.l2.demand_mshr_miss_latency::.cpu.data  13006321500                       # number of demand (read+write) MSHR miss cycles
system.l2.demand_mshr_miss_latency::total  13061187000                       # number of demand (read+write) MSHR miss cycles
system.l2.overall_mshr_miss_latency::.cpu.inst     54865500                       # number of overall MSHR miss cycles
system.l2.overall_mshr_miss_latency::.cpu.data  13006321500                       # number of overall MSHR miss cycles
system.l2.overall_mshr_miss_latency::total  13061187000                       # number of overall MSHR miss cycles
system.l2.demand_mshr_miss_rate::.cpu.inst     0.994975                       # mshr miss rate for demand accesses
system.l2.demand_mshr_miss_rate::.cpu.data     0.245986                       # mshr miss rate for demand accesses
system.l2.demand_mshr_miss_rate::total       0.246798                       # mshr miss rate for demand accesses
system.l2.overall_mshr_miss_rate::.cpu.inst     0.994975                       # mshr miss rate for overall accesses
system.l2.overall_mshr_miss_rate::.cpu.data     0.245986                       # mshr miss rate for overall accesses
system.l2.overall_mshr_miss_rate::total      0.246798                       # mshr miss rate for overall accesses
system.l2.demand_avg_mshr_miss_latency::.cpu.inst 69274.621212                       # average overall mshr miss latency
system.l2.demand_avg_mshr_miss_latency::.cpu.data 72046.804892                       # average overall mshr miss latency
system.l2.demand_avg_mshr_miss_latency::total 72034.695949                       # average overall mshr miss latency
system.l2.overall_avg_mshr_miss_latency::.cpu.inst 69274.621212                       # average overall mshr miss latency
system.l2.overall_avg_mshr_miss_latency::.cpu.data 72046.804892                       # average overall mshr miss latency
system.l2.overall_avg_mshr_miss_latency::total 72034.695949                       # average overall mshr miss latency
system.l2.replacements                          94098                       # number of replacements
system.l2.WritebackDirty_hits::.writebacks       678860                       # number of WritebackDirty hits
system.l2.WritebackDirty_hits::total           678860                       # number of WritebackDirty hits
system.l2.WritebackDirty_accesses::.writebacks       678860                       # number of WritebackDirty accesses(hits+misses)
system.l2.WritebackDirty_accesses::total       678860                       # number of WritebackDirty accesses(hits+misses)
system.l2.WritebackClean_hits::.writebacks           46                       # number of WritebackClean hits
system.l2.WritebackClean_hits::total               46                       # number of WritebackClean hits
system.l2.WritebackClean_accesses::.writebacks           46                       # number of WritebackClean accesses(hits+misses)
system.l2.WritebackClean_accesses::total           46                       # number of WritebackClean accesses(hits+misses)
system.l2.CleanEvict_mshr_misses::.writebacks           13                       # number of CleanEvict MSHR misses
system.l2.CleanEvict_mshr_misses::total            13                       # number of CleanEvict MSHR misses
system.l2.CleanEvict_mshr_miss_rate::.writebacks          inf                       # mshr miss rate for CleanEvict accesses
system.l2.CleanEvict_mshr_miss_rate::total          inf                       # mshr miss rate for CleanEvict accesses
system.l2.ReadExReq_hits::.cpu.data            174372                       # number of ReadExReq hits
system.l2.ReadExReq_hits::total                174372                       # number of ReadExReq hits
system.l2.ReadExReq_misses::.cpu.data          119481                       # number of ReadExReq misses
system.l2.ReadExReq_misses::total              119481                       # number of ReadExReq misses
system.l2.ReadExReq_miss_latency::.cpu.data   9763533500                       # number of ReadExReq miss cycles
system.l2.ReadExReq_miss_latency::total    9763533500                       # number of ReadExReq miss cycles
system.l2.ReadExReq_accesses::.cpu.data        293853                       # number of ReadExReq accesses(hits+misses)
system.l2.ReadExReq_accesses::total            293853                       # number of ReadExReq accesses(hits+misses)
system.l2.ReadExReq_miss_rate::.cpu.data     0.406601                       # miss rate for ReadExReq accesses
system.l2.ReadExReq_miss_rate::total         0.406601                       # miss rate for ReadExReq accesses
system.l2.ReadExReq_avg_miss_latency::.cpu.data 81716.201739                       # average ReadExReq miss latency
system.l2.ReadExReq_avg_miss_latency::total 81716.201739                       # average ReadExReq miss latency
system.l2.ReadExReq_mshr_misses::.cpu.data       119481                       # number of ReadExReq MSHR misses
system.l2.ReadExReq_mshr_misses::total         119481                       # number of ReadExReq MSHR misses
system.l2.ReadExReq_mshr_miss_latency::.cpu.data   8568723500                       # number of ReadExReq MSHR miss cycles
system.l2.ReadExReq_mshr_miss_latency::total   8568723500                       # number of ReadExReq MSHR miss cycles
system.l2.ReadExReq_mshr_miss_rate::.cpu.data     0.406601                       # mshr miss rate for ReadExReq accesses
system.l2.ReadExReq_mshr_miss_rate::total     0.406601                       # mshr miss rate for ReadExReq accesses
system.l2.ReadExReq_avg_mshr_miss_latency::.cpu.data 71716.201739                       # average ReadExReq mshr miss latency
system.l2.ReadExReq_avg_mshr_miss_latency::total 71716.201739                       # average ReadExReq mshr miss latency
system.l2.ReadCleanReq_hits::.cpu.inst              4                       # number of ReadCleanReq hits
system.l2.ReadCleanReq_hits::total                  4                       # number of ReadCleanReq hits
system.l2.ReadCleanReq_misses::.cpu.inst          792                       # number of ReadCleanReq misses
system.l2.ReadCleanReq_misses::total              792                       # number of ReadCleanReq misses
system.l2.ReadCleanReq_miss_latency::.cpu.inst     62785500                       # number of ReadCleanReq miss cycles
system.l2.ReadCleanReq_miss_latency::total     62785500                       # number of ReadCleanReq miss cycles
system.l2.ReadCleanReq_accesses::.cpu.inst          796                       # number of ReadCleanReq accesses(hits+misses)
system.l2.ReadCleanReq_accesses::total            796                       # number of ReadCleanReq accesses(hits+misses)
system.l2.ReadCleanReq_miss_rate::.cpu.inst     0.994975                       # miss rate for ReadCleanReq accesses
system.l2.ReadCleanReq_miss_rate::total      0.994975                       # miss rate for ReadCleanReq accesses
system.l2.ReadCleanReq_avg_miss_latency::.cpu.inst 79274.621212                       # average ReadCleanReq miss latency
system.l2.ReadCleanReq_avg_miss_latency::total 79274.621212                       # average ReadCleanReq miss latency
system.l2.ReadCleanReq_mshr_misses::.cpu.inst          792                       # number of ReadCleanReq MSHR misses
system.l2.ReadCleanReq_mshr_misses::total          792                       # number of ReadCleanReq MSHR misses
system.l2.ReadCleanReq_mshr_miss_latency::.cpu.inst     54865500                       # number of ReadCleanReq MSHR miss cycles
system.l2.ReadCleanReq_mshr_miss_latency::total     54865500                       # number of ReadCleanReq MSHR miss cycles
system.l2.ReadCleanReq_mshr_miss_rate::.cpu.inst     0.994975                       # mshr miss rate for ReadCleanReq accesses
system.l2.ReadCleanReq_mshr_miss_rate::total     0.994975                       # mshr miss rate for ReadCleanReq accesses
system.l2.ReadCleanReq_avg_mshr_miss_latency::.cpu.inst 69274.621212                       # average ReadCleanReq mshr miss latency
system.l2.ReadCleanReq_avg_mshr_miss_latency::total 69274.621212                       # average ReadCleanReq mshr miss latency
system.l2.ReadSharedReq_hits::.cpu.data        378988                       # number of ReadSharedReq hits
system.l2.ReadSharedReq_hits::total            378988                       # number of ReadSharedReq hits
system.l2.ReadSharedReq_misses::.cpu.data        61045                       # number of ReadSharedReq misses
system.l2.ReadSharedReq_misses::total           61045                       # number of ReadSharedReq misses
system.l2.ReadSharedReq_miss_latency::.cpu.data   5048048000                       # number of ReadSharedReq miss cycles
system.l2.ReadSharedReq_miss_latency::total   5048048000                       # number of ReadSharedReq miss cycles
system.l2.ReadSharedReq_accesses::.cpu.data       440033                       # number of ReadSharedReq accesses(hits+misses)
system.l2.ReadSharedReq_accesses::total        440033                       # number of ReadSharedReq accesses(hits+misses)
system.l2.ReadSharedReq_miss_rate::.cpu.data     0.138728                       # miss rate for ReadSharedReq accesses
system.l2.ReadSharedReq_miss_rate::total     0.138728                       # miss rate for ReadSharedReq accesses
system.l2.ReadSharedReq_avg_miss_latency::.cpu.data 82693.881563                       # average ReadSharedReq miss latency
system.l2.ReadSharedReq_avg_miss_latency::total 82693.881563                       # average ReadSharedReq miss latency
system.l2.ReadSharedReq_mshr_misses::.cpu.data        61045                       # number of ReadSharedReq MSHR misses
system.l2.ReadSharedReq_mshr_misses::total        61045                       # number of ReadSharedReq MSHR misses
system.l2.ReadSharedReq_mshr_miss_latency::.cpu.data   4437598000                       # number of ReadSharedReq MSHR miss cycles
system.l2.ReadSharedReq_mshr_miss_latency::total   4437598000                       # number of ReadSharedReq MSHR miss cycles
system.l2.ReadSharedReq_mshr_miss_rate::.cpu.data     0.138728                       # mshr miss rate for ReadSharedReq accesses
system.l2.ReadSharedReq_mshr_miss_rate::total     0.138728                       # mshr miss rate for ReadSharedReq accesses
system.l2.ReadSharedReq_avg_mshr_miss_latency::.cpu.data 72693.881563                       # average ReadSharedReq mshr miss latency
system.l2.ReadSharedReq_avg_mshr_miss_latency::total 72693.881563                       # average ReadSharedReq mshr miss latency
system.l2.tags.pwrStateResidencyTicks::UNDEFINED  53089128000                       # Cumulative time (in ticks) in various power states
system.l2.tags.tagsinuse                 67142.321089                       # Cycle average of tags in use
system.l2.tags.total_refs                     1467574                       # Total number of references to valid blocks.
system.l2.tags.sampled_refs                    181333                       # Sample count of references to valid blocks.
system.l2.tags.avg_refs                      8.093254                       # Average number of references to valid blocks.
system.l2.tags.warmup_cycle                     77000                       # Cycle when the warmup percentage was hit.
system.l2.tags.occ_blocks::.writebacks       2.222106                       # Average occupied blocks per requestor
system.l2.tags.occ_blocks::.cpu.inst       604.443107                       # Average occupied blocks per requestor
system.l2.tags.occ_blocks::.cpu.data     66535.655875                       # Average occupied blocks per requestor
system.l2.tags.occ_percent::.writebacks      0.000017                       # Average percentage of cache occupancy
system.l2.tags.occ_percent::.cpu.inst        0.004612                       # Average percentage of cache occupancy
system.l2.tags.occ_percent::.cpu.data        0.507627                       # Average percentage of cache occupancy
system.l2.tags.occ_percent::total            0.512255                       # Average percentage of cache occupancy
system.l2.tags.occ_task_id_blocks::1024         87235                       # Occupied blocks per task id
system.l2.tags.age_task_id_blocks_1024::3            4                       # Occupied blocks per task id
system.l2.tags.age_task_id_blocks_1024::4        87231                       # Occupied blocks per task id
system.l2.tags.occ_task_id_percent::1024     0.665550                       # Percentage of cache occupancy per task id
system.l2.tags.tag_accesses                   1648920                       # Number of tag accesses
system.l2.tags.data_accesses                  1648920                       # Number of data accesses
system.cpu_voltage_domain.voltage                   1                       # Voltage in Volts
system.mem_ctrls.pwrStateResidencyTicks::UNDEFINED  53089128000                       # Cumulative time (in ticks) in various power states
system.mem_ctrls.bytes_read::.cpu.inst          50688                       # Number of bytes read from this memory
system.mem_ctrls.bytes_read::.cpu.data       11553664                       # Number of bytes read from this memory
system.mem_ctrls.bytes_read::total           11604352                       # Number of bytes read from this memory
system.mem_ctrls.bytes_inst_read::.cpu.inst        50688                       # Number of instructions bytes read from this memory
system.mem_ctrls.bytes_inst_read::total         50688                       # Number of instructions bytes read from this memory
system.mem_ctrls.bytes_written::.writebacks      3385152                       # Number of bytes written to this memory
system.mem_ctrls.bytes_written::total         3385152                       # Number of bytes written to this memory
system.mem_ctrls.num_reads::.cpu.inst             792                       # Number of read requests responded to by this memory
system.mem_ctrls.num_reads::.cpu.data          180526                       # Number of read requests responded to by this memory
system.mem_ctrls.num_reads::total              181318                       # Number of read requests responded to by this memory
system.mem_ctrls.num_writes::.writebacks        52893                       # Number of write requests responded to by this memory
system.mem_ctrls.num_writes::total              52893                       # Number of write requests responded to by this memory
system.mem_ctrls.bw_read::.cpu.inst            954772                       # Total read bandwidth from this memory (bytes/s)
system.mem_ctrls.bw_read::.cpu.data         217627685                       # Total read bandwidth from this memory (bytes/s)
system.mem_ctrls.bw_read::total             218582456                       # Total read bandwidth from this memory (bytes/s)
system.mem_ctrls.bw_inst_read::.cpu.inst       954772                       # Instruction read bandwidth from this memory (bytes/s)
system.mem_ctrls.bw_inst_read::total           954772                       # Instruction read bandwidth from this memory (bytes/s)
system.mem_ctrls.bw_write::.writebacks       63763564                       # Write bandwidth from this memory (bytes/s)
system.mem_ctrls.bw_write::total             63763564                       # Write bandwidth from this memory (bytes/s)
system.mem_ctrls.bw_total::.writebacks       63763564                       # Total bandwidth to/from this memory (bytes/s)
system.mem_ctrls.bw_total::.cpu.inst           954772                       # Total bandwidth to/from this memory (bytes/s)
system.mem_ctrls.bw_total::.cpu.data        217627685                       # Total bandwidth to/from this memory (bytes/s)
system.mem_ctrls.bw_total::total            282346020                       # Total bandwidth to/from this memory (bytes/s)
system.mem_ctrls.avgPriority_.writebacks::samples     52893.00                       # Average QoS priority value for accepted requests
system.mem_ctrls.avgPriority_.cpu.inst::samples       792.00                       # Average QoS priority value for accepted requests
system.mem_ctrls.avgPriority_.cpu.data::samples    180525.00                       # Average QoS priority value for accepted requests
system.mem_ctrls.priorityMinLatency      0.000000018750                       # per QoS priority minimum request to response latency (s)
system.mem_ctrls.priorityMaxLatency      0.001556688500                       # per QoS priority maximum request to response latency (s)
system.mem_ctrls.numReadWriteTurnArounds         3211                       # Number of turnarounds from READ to WRITE
system.mem_ctrls.numWriteReadTurnArounds         3211                       # Number of turnarounds from WRITE to READ
system.mem_ctrls.numStayReadState              423383                       # Number of times bus staying in READ state
system.mem_ctrls.numStayWriteState              49718                       # Number of times bus staying in WRITE state
system.mem_ctrls.readReqs                      181318                       # Number of read requests accepted
system.mem_ctrls.writeReqs                      52893                       # Number of write requests accepted
system.mem_ctrls.readBursts                    181318                       # Number of DRAM read bursts, including those serviced by the write queue
system.mem_ctrls.writeBursts                    52893                       # Number of DRAM write bursts, including those merged in the write queue
system.mem_ctrls.servicedByWrQ                      1                       # Number of DRAM read bursts serviced by the write queue
system.mem_ctrls.mergedWrBursts                     0                       # Number of DRAM write bursts merged with an existing one
system.mem_ctrls.neitherReadNorWriteReqs            0                       # Number of requests that are neither read nor write
system.mem_ctrls.perBankRdBursts::0             11500                       # Per bank write bursts
system.mem_ctrls.perBankRdBursts::1             11366                       # Per bank write bursts
system.mem_ctrls.perBankRdBursts::2             11331                       # Per bank write bursts
system.mem_ctrls.perBankRdBursts::3             11232                       # Per bank write bursts
system.mem_ctrls.perBankRdBursts::4             11243                       # Per bank write bursts
system.mem_ctrls.perBankRdBursts::5             11287                       # Per bank write bursts
system.mem_ctrls.perBankRdBursts::6             11356                       # Per bank write bursts
system.mem_ctrls.perBankRdBursts::7             11365                       # Per bank write bursts
system.mem_ctrls.perBankRdBursts::8             11370                       # Per bank write bursts
system.mem_ctrls.perBankRdBursts::9             11322                       # Per bank write bursts
system.mem_ctrls.perBankRdBursts::10            11286                       # Per bank write bursts
system.mem_ctrls.perBankRdBursts::11            11241                       # Per bank write bursts
system.mem_ctrls.perBankRdBursts::12            11238                       # Per bank write bursts
system.mem_ctrls.perBankRdBursts::13            11293                       # Per bank write bursts
system.mem_ctrls.perBankRdBursts::14            11430                       # Per bank write bursts
system.mem_ctrls.perBankRdBursts::15            11457                       # Per bank write bursts
system.mem_ctrls.perBankWrBursts::0              3401                       # Per bank write bursts
system.mem_ctrls.perBankWrBursts::1              3327                       # Per bank write bursts
system.mem_ctrls.perBankWrBursts::2              3295                       # Per bank write bursts
system.mem_ctrls.perBankWrBursts::3              3278                       # Per bank write bursts
system.mem_ctrls.perBankWrBursts::4              3250                       # Per bank write bursts
system.mem_ctrls.perBankWrBursts::5              3180                       # Per bank write bursts
system.mem_ctrls.perBankWrBursts::6              3300                       # Per bank write bursts
system.mem_ctrls.perBankWrBursts::7              3304                       # Per bank write bursts
system.mem_ctrls.perBankWrBursts::8              3301                       # Per bank write bursts
system.mem_ctrls.perBankWrBursts::9              3288                       # Per bank write bursts
system.mem_ctrls.perBankWrBursts::10             3286                       # Per bank write bursts
system.mem_ctrls.perBankWrBursts::11             3302                       # Per bank write bursts
system.mem_ctrls.perBankWrBursts::12             3320                       # Per bank write bursts
system.mem_ctrls.perBankWrBursts::13             3344                       # Per bank write bursts
system.mem_ctrls.perBankWrBursts::14             3371                       # Per bank write bursts
system.mem_ctrls.perBankWrBursts::15             3315                       # Per bank write bursts
system.mem_ctrls.avgRdQLen                       1.10                       # Average read queue length when enqueuing
system.mem_ctrls.avgWrQLen                      26.18                       # Average write queue length when enqueuing
system.mem_ctrls.totQLat                   2203895250                       # Total ticks spent queuing
system.mem_ctrls.totBusLat                  906585000                       # Total ticks spent in databus transfers
[...]
system.cpu.icache.tags.data_accesses         58582260                       # Number of data accesses
system.cpu.dtb.walker.pwrStateResidencyTicks::UNDEFINED  53089128000                       # Cumulative time (in ticks) in various power states
system.cpu.interrupts.clk_domain.clock           8000                       # Clock period in ticks
system.cpu.itb_walker_cache.pwrStateResidencyTicks::UNDEFINED  53089128000                       # Cumulative time (in ticks) in various power states
system.cpu.itb_walker_cache.blocked_cycles::no_mshrs            0                       # number of cycles access was blocked
system.cpu.itb_walker_cache.blocked_cycles::no_targets            0                       # number of cycles access was blocked
system.cpu.itb_walker_cache.blocked::no_mshrs            0                       # number of cycles access was blocked
system.cpu.itb_walker_cache.blocked::no_targets            0                       # number of cycles access was blocked
system.cpu.itb_walker_cache.avg_blocked_cycles::no_mshrs          nan                       # average number of cycles each access was blocked
system.cpu.itb_walker_cache.avg_blocked_cycles::no_targets          nan                       # average number of cycles each access was blocked
system.cpu.itb_walker_cache.replacements            0                       # number of replacements
system.cpu.itb_walker_cache.tags.pwrStateResidencyTicks::UNDEFINED  53089128000                       # Cumulative time (in ticks) in various power states
system.cpu.itb_walker_cache.tags.tagsinuse            0                       # Cycle average of tags in use
system.cpu.itb_walker_cache.tags.total_refs            0                       # Total number of references to valid blocks.
system.cpu.itb_walker_cache.tags.sampled_refs            0                       # Sample count of references to valid blocks.
system.cpu.itb_walker_cache.tags.avg_refs          nan                       # Average number of references to valid blocks.
system.cpu.itb_walker_cache.tags.warmup_cycle            0                       # Cycle when the warmup percentage was hit.
system.cpu.itb_walker_cache.tags.tag_accesses            0                       # Number of tag accesses
system.cpu.itb_walker_cache.tags.data_accesses            0                       # Number of data accesses
system.cpu.itb.walker.pwrStateResidencyTicks::UNDEFINED  53089128000                       # Cumulative time (in ticks) in various power states
system.cpu.dtb_walker_cache.pwrStateResidencyTicks::UNDEFINED  53089128000                       # Cumulative time (in ticks) in various power states
system.cpu.dtb_walker_cache.blocked_cycles::no_mshrs            0                       # number of cycles access was blocked
system.cpu.dtb_walker_cache.blocked_cycles::no_targets            0                       # number of cycles access was blocked
system.cpu.dtb_walker_cache.blocked::no_mshrs            0                       # number of cycles access was blocked
system.cpu.dtb_walker_cache.blocked::no_targets            0                       # number of cycles access was blocked
system.cpu.dtb_walker_cache.avg_blocked_cycles::no_mshrs          nan                       # average number of cycles each access was blocked
system.cpu.dtb_walker_cache.avg_blocked_cycles::no_targets          nan                       # average number of cycles each access was blocked
system.cpu.dtb_walker_cache.replacements            0                       # number of replacements
system.cpu.dtb_walker_cache.tags.pwrStateResidencyTicks::UNDEFINED  53089128000                       # Cumulative time (in ticks) in various power states
system.cpu.dtb_walker_cache.tags.tagsinuse            0                       # Cycle average of tags in use
system.cpu.dtb_walker_cache.tags.total_refs            0                       # Total number of references to valid blocks.
system.cpu.dtb_walker_cache.tags.sampled_refs            0                       # Sample count of references to valid blocks.
system.cpu.dtb_walker_cache.tags.avg_refs          nan                       # Average number of references to valid blocks.
system.cpu.dtb_walker_cache.tags.warmup_cycle            0                       # Cycle when the warmup percentage was hit.
system.cpu.dtb_walker_cache.tags.tag_accesses            0                       # Number of tag accesses
system.cpu.dtb_walker_cache.tags.data_accesses            0                       # Number of data accesses
system.cpu.dcache.pwrStateResidencyTicks::UNDEFINED  53089128000                       # Cumulative time (in ticks) in various power states
system.cpu.dcache.demand_hits::.cpu.data     58460178                       # number of demand (read+write) hits
system.cpu.dcache.demand_hits::total         58460178                       # number of demand (read+write) hits
system.cpu.dcache.overall_hits::.cpu.data     58460178                       # number of overall hits
system.cpu.dcache.overall_hits::total        58460178                       # number of overall hits
system.cpu.dcache.demand_misses::.cpu.data       808933                       # number of demand (read+write) misses
system.cpu.dcache.demand_misses::total         808933                       # number of demand (read+write) misses
system.cpu.dcache.overall_misses::.cpu.data       825317                       # number of overall misses
system.cpu.dcache.overall_misses::total        825317                       # number of overall misses
system.cpu.dcache.demand_miss_latency::.cpu.data  28728717950                       # number of demand (read+write) miss cycles
system.cpu.dcache.demand_miss_latency::total  28728717950                       # number of demand (read+write) miss cycles
system.cpu.dcache.overall_miss_latency::.cpu.data  28728717950                       # number of overall miss cycles
system.cpu.dcache.overall_miss_latency::total  28728717950                       # number of overall miss cycles
system.cpu.dcache.demand_accesses::.cpu.data     59269111                       # number of demand (read+write) accesses
system.cpu.dcache.demand_accesses::total     59269111                       # number of demand (read+write) accesses
system.cpu.dcache.overall_accesses::.cpu.data     59285495                       # number of overall (read+write) accesses
system.cpu.dcache.overall_accesses::total     59285495                       # number of overall (read+write) accesses
system.cpu.dcache.demand_miss_rate::.cpu.data     0.013648                       # miss rate for demand accesses
system.cpu.dcache.demand_miss_rate::total     0.013648                       # miss rate for demand accesses
system.cpu.dcache.overall_miss_rate::.cpu.data     0.013921                       # miss rate for overall accesses
system.cpu.dcache.overall_miss_rate::total     0.013921                       # miss rate for overall accesses
system.cpu.dcache.demand_avg_miss_latency::.cpu.data 35514.335489                       # average overall miss latency
system.cpu.dcache.demand_avg_miss_latency::total 35514.335489                       # average overall miss latency
system.cpu.dcache.overall_avg_miss_latency::.cpu.data 34809.313209                       # average overall miss latency
system.cpu.dcache.overall_avg_miss_latency::total 34809.313209                       # average overall miss latency
system.cpu.dcache.blocked_cycles::no_mshrs      1113841                       # number of cycles access was blocked
system.cpu.dcache.blocked_cycles::no_targets          126                       # number of cycles access was blocked
system.cpu.dcache.blocked::no_mshrs             18461                       # number of cycles access was blocked
system.cpu.dcache.blocked::no_targets               2                       # number of cycles access was blocked
system.cpu.dcache.avg_blocked_cycles::no_mshrs    60.334814                       # average number of cycles each access was blocked
system.cpu.dcache.avg_blocked_cycles::no_targets           63                       # average number of cycles each access was blocked
system.cpu.dcache.writebacks::.writebacks       678860                       # number of writebacks
system.cpu.dcache.writebacks::total            678860                       # number of writebacks
system.cpu.dcache.demand_mshr_hits::.cpu.data        91431                       # number of demand (read+write) MSHR hits
system.cpu.dcache.demand_mshr_hits::total        91431                       # number of demand (read+write) MSHR hits
system.cpu.dcache.overall_mshr_hits::.cpu.data        91431                       # number of overall MSHR hits
system.cpu.dcache.overall_mshr_hits::total        91431                       # number of overall MSHR hits
system.cpu.dcache.demand_mshr_misses::.cpu.data       717502                       # number of demand (read+write) MSHR misses
system.cpu.dcache.demand_mshr_misses::total       717502                       # number of demand (read+write) MSHR misses
system.cpu.dcache.overall_mshr_misses::.cpu.data       733886                       # number of overall MSHR misses
system.cpu.dcache.overall_mshr_misses::total       733886                       # number of overall MSHR misses
system.cpu.dcache.demand_mshr_miss_latency::.cpu.data  20431688951                       # number of demand (read+write) MSHR miss cycles
system.cpu.dcache.demand_mshr_miss_latency::total  20431688951                       # number of demand (read+write) MSHR miss cycles
system.cpu.dcache.overall_mshr_miss_latency::.cpu.data  21736468951                       # number of overall MSHR miss cycles
system.cpu.dcache.overall_mshr_miss_latency::total  21736468951                       # number of overall MSHR miss cycles
system.cpu.dcache.demand_mshr_miss_rate::.cpu.data     0.012106                       # mshr miss rate for demand accesses
system.cpu.dcache.demand_mshr_miss_rate::total     0.012106                       # mshr miss rate for demand accesses
system.cpu.dcache.overall_mshr_miss_rate::.cpu.data     0.012379                       # mshr miss rate for overall accesses
system.cpu.dcache.overall_mshr_miss_rate::total     0.012379                       # mshr miss rate for overall accesses
system.cpu.dcache.demand_avg_mshr_miss_latency::.cpu.data 28476.142158                       # average overall mshr miss latency
system.cpu.dcache.demand_avg_mshr_miss_latency::total 28476.142158                       # average overall mshr miss latency
system.cpu.dcache.overall_avg_mshr_miss_latency::.cpu.data 29618.318037                       # average overall mshr miss latency
system.cpu.dcache.overall_avg_mshr_miss_latency::total 29618.318037                       # average overall mshr miss latency
system.cpu.dcache.replacements                 732862                       # number of replacements
system.cpu.dcache.ReadReq_hits::.cpu.data     45357030                       # number of ReadReq hits
system.cpu.dcache.ReadReq_hits::total        45357030                       # number of ReadReq hits
system.cpu.dcache.ReadReq_misses::.cpu.data       515074                       # number of ReadReq misses
system.cpu.dcache.ReadReq_misses::total        515074                       # number of ReadReq misses
system.cpu.dcache.ReadReq_miss_latency::.cpu.data  16395057000                       # number of ReadReq miss cycles
system.cpu.dcache.ReadReq_miss_latency::total  16395057000                       # number of ReadReq miss cycles
system.cpu.dcache.ReadReq_accesses::.cpu.data     45872104                       # number of ReadReq accesses(hits+misses)
system.cpu.dcache.ReadReq_accesses::total     45872104                       # number of ReadReq accesses(hits+misses)
system.cpu.dcache.ReadReq_miss_rate::.cpu.data     0.011228                       # miss rate for ReadReq accesses
system.cpu.dcache.ReadReq_miss_rate::total     0.011228                       # miss rate for ReadReq accesses
system.cpu.dcache.ReadReq_avg_miss_latency::.cpu.data 31830.488435                       # average ReadReq miss latency
system.cpu.dcache.ReadReq_avg_miss_latency::total 31830.488435                       # average ReadReq miss latency
system.cpu.dcache.ReadReq_mshr_hits::.cpu.data        91423                       # number of ReadReq MSHR hits
system.cpu.dcache.ReadReq_mshr_hits::total        91423                       # number of ReadReq MSHR hits
system.cpu.dcache.ReadReq_mshr_misses::.cpu.data       423651                       # number of ReadReq MSHR misses
system.cpu.dcache.ReadReq_mshr_misses::total       423651                       # number of ReadReq MSHR misses
system.cpu.dcache.ReadReq_mshr_miss_latency::.cpu.data   8392060000                       # number of ReadReq MSHR miss cycles
system.cpu.dcache.ReadReq_mshr_miss_latency::total   8392060000                       # number of ReadReq MSHR miss cycles
system.cpu.dcache.ReadReq_mshr_miss_rate::.cpu.data     0.009235                       # mshr miss rate for ReadReq accesses
system.cpu.dcache.ReadReq_mshr_miss_rate::total     0.009235                       # mshr miss rate for ReadReq accesses
system.cpu.dcache.ReadReq_avg_mshr_miss_latency::.cpu.data 19808.899306                       # average ReadReq mshr miss latency
system.cpu.dcache.ReadReq_avg_mshr_miss_latency::total 19808.899306                       # average ReadReq mshr miss latency
system.cpu.dcache.WriteReq_hits::.cpu.data     13103148                       # number of WriteReq hits
system.cpu.dcache.WriteReq_hits::total       13103148                       # number of WriteReq hits
system.cpu.dcache.WriteReq_misses::.cpu.data       293859                       # number of WriteReq misses
system.cpu.dcache.WriteReq_misses::total       293859                       # number of WriteReq misses
system.cpu.dcache.WriteReq_miss_latency::.cpu.data  12333660950                       # number of WriteReq miss cycles
system.cpu.dcache.WriteReq_miss_latency::total  12333660950                       # number of WriteReq miss cycles
system.cpu.dcache.WriteReq_accesses::.cpu.data     13397007                       # number of WriteReq accesses(hits+misses)
system.cpu.dcache.WriteReq_accesses::total     13397007                       # number of WriteReq accesses(hits+misses)
system.cpu.dcache.WriteReq_miss_rate::.cpu.data     0.021935                       # miss rate for WriteReq accesses
system.cpu.dcache.WriteReq_miss_rate::total     0.021935                       # miss rate for WriteReq accesses
system.cpu.dcache.WriteReq_avg_miss_latency::.cpu.data 41971.356841                       # average WriteReq miss latency
system.cpu.dcache.WriteReq_avg_miss_latency::total 41971.356841                       # average WriteReq miss latency
system.cpu.dcache.WriteReq_mshr_hits::.cpu.data            8                       # number of WriteReq MSHR hits
system.cpu.dcache.WriteReq_mshr_hits::total            8                       # number of WriteReq MSHR hits
system.cpu.dcache.WriteReq_mshr_misses::.cpu.data       293851                       # number of WriteReq MSHR misses
system.cpu.dcache.WriteReq_mshr_misses::total       293851                       # number of WriteReq MSHR misses
system.cpu.dcache.WriteReq_mshr_miss_latency::.cpu.data  12039628951                       # number of WriteReq MSHR miss cycles
system.cpu.dcache.WriteReq_mshr_miss_latency::total  12039628951                       # number of WriteReq MSHR miss cycles
system.cpu.dcache.WriteReq_mshr_miss_rate::.cpu.data     0.021934                       # mshr miss rate for WriteReq accesses
system.cpu.dcache.WriteReq_mshr_miss_rate::total     0.021934                       # mshr miss rate for WriteReq accesses
system.cpu.dcache.WriteReq_avg_mshr_miss_latency::.cpu.data 40971.883543                       # average WriteReq mshr miss latency
system.cpu.dcache.WriteReq_avg_mshr_miss_latency::total 40971.883543                       # average WriteReq mshr miss latency
system.cpu.dcache.SoftPFReq_misses::.cpu.data        16384                       # number of SoftPFReq misses
system.cpu.dcache.SoftPFReq_misses::total        16384                       # number of SoftPFReq misses
system.cpu.dcache.SoftPFReq_accesses::.cpu.data        16384                       # number of SoftPFReq accesses(hits+misses)
system.cpu.dcache.SoftPFReq_accesses::total        16384                       # number of SoftPFReq accesses(hits+misses)
system.cpu.dcache.SoftPFReq_miss_rate::.cpu.data            1                       # miss rate for SoftPFReq accesses
system.cpu.dcache.SoftPFReq_miss_rate::total            1                       # miss rate for SoftPFReq accesses
system.cpu.dcache.SoftPFReq_mshr_misses::.cpu.data        16384                       # number of SoftPFReq MSHR misses
system.cpu.dcache.SoftPFReq_mshr_misses::total        16384                       # number of SoftPFReq MSHR misses
system.cpu.dcache.SoftPFReq_mshr_miss_latency::.cpu.data   1304780000                       # number of SoftPFReq MSHR miss cycles
system.cpu.dcache.SoftPFReq_mshr_miss_latency::total   1304780000                       # number of SoftPFReq MSHR miss cycles
system.cpu.dcache.SoftPFReq_mshr_miss_rate::.cpu.data            1                       # mshr miss rate for SoftPFReq accesses
system.cpu.dcache.SoftPFReq_mshr_miss_rate::total            1                       # mshr miss rate for SoftPFReq accesses
system.cpu.dcache.SoftPFReq_avg_mshr_miss_latency::.cpu.data 79637.451172                       # average SoftPFReq mshr miss latency
system.cpu.dcache.SoftPFReq_avg_mshr_miss_latency::total 79637.451172                       # average SoftPFReq mshr miss latency
system.cpu.dcache.tags.pwrStateResidencyTicks::UNDEFINED  53089128000                       # Cumulative time (in ticks) in various power states
system.cpu.dcache.tags.tagsinuse           985.197757                       # Cycle average of tags in use
system.cpu.dcache.tags.total_refs            59194064                       # Total number of references to valid blocks.
system.cpu.dcache.tags.sampled_refs            733886                       # Sample count of references to valid blocks.
system.cpu.dcache.tags.avg_refs             80.658391                       # Average number of references to valid blocks.
system.cpu.dcache.tags.warmup_cycle            190500                       # Cycle when the warmup percentage was hit.
system.cpu.dcache.tags.occ_blocks::.cpu.data   985.197757                       # Average occupied blocks per requestor
system.cpu.dcache.tags.occ_percent::.cpu.data     0.962107                       # Average percentage of cache occupancy
system.cpu.dcache.tags.occ_percent::total     0.962107                       # Average percentage of cache occupancy
system.cpu.dcache.tags.occ_task_id_blocks::1024         1024                       # Occupied blocks per task id
system.cpu.dcache.tags.age_task_id_blocks_1024::0            7                       # Occupied blocks per task id
system.cpu.dcache.tags.age_task_id_blocks_1024::1          223                       # Occupied blocks per task id
system.cpu.dcache.tags.age_task_id_blocks_1024::2          790                       # Occupied blocks per task id
system.cpu.dcache.tags.age_task_id_blocks_1024::3            3                       # Occupied blocks per task id
system.cpu.dcache.tags.age_task_id_blocks_1024::4            1                       # Occupied blocks per task id
system.cpu.dcache.tags.occ_task_id_percent::1024            1                       # Percentage of cache occupancy per task id
system.cpu.dcache.tags.tag_accesses         237875866                       # Number of tag accesses
system.cpu.dcache.tags.data_accesses        237875866                       # Number of data accesses

---------- End Simulation Statistics   ----------
